# File generated by Flopy version 3.11.0.dev0 on 06/02/2026 at 14:26:04.
BEGIN options
END options

BEGIN timing
  TDIS6  sim.tdis
END timing

BEGIN models
  gwf6  ps2.nam  ps2
END models

BEGIN exchanges
END exchanges

BEGIN solutiongroup  1
  ims6  sim.ims  ps2
END solutiongroup  1

