# File generated by Flopy version 3.11.0.dev0 on 06/02/2026 at 14:26:04.
BEGIN options
  READASARRAYS
END options

BEGIN period  1
  recharge
    INTERNAL  FACTOR  1.0
         0.00500000       0.00500000       0.00500000       0.00500000       0.00500000       0.00500000       0.00500000       0.00500000       0.00500000       0.00500000       0.00500000       0.00500000       0.00500000       0.00500000       0.00500000       0.00500000       0.00500000       0.00500000       0.00500000       0.00000000
         0.00500000       0.00500000       0.00500000       0.00500000       0.00500000       0.00500000       0.00500000       0.00500000       0.00500000       0.00500000       0.00500000       0.00500000       0.00500000       0.00500000       0.00500000       0.00500000       0.00500000       0.00500000       0.00500000       0.00000000
         0.00500000       0.00500000       0.00500000       0.00500000       0.00500000       0.00500000       0.00500000       0.00500000       0.00500000       0.00500000       0.00500000       0.00500000       0.00500000       0.00500000       0.00500000       0.00500000       0.00500000       0.00500000       0.00500000       0.00000000
         0.00500000       0.00500000       0.00500000       0.00500000       0.00500000       0.00500000       0.00500000       0.00500000       0.00500000       0.00500000       0.00500000       0.00500000       0.00500000       0.00500000       0.00500000       0.00500000       0.00500000       0.00500000       0.00500000       0.00000000
         0.00500000       0.00500000       0.00500000       0.00500000       0.00500000       0.00500000       0.00500000       0.00500000       0.00500000       0.00500000       0.00500000       0.00500000       0.00500000       0.00500000       0.00500000       0.00500000       0.00500000       0.00500000       0.00500000       0.00000000
         0.00500000       0.00500000       0.00500000       0.00500000       0.00500000       0.00500000       0.00500000       0.00500000       0.00500000       0.00500000       0.00500000       0.00500000       0.00500000       0.00500000       0.00500000       0.00500000       0.00500000       0.00500000       0.00500000       0.00000000
         0.00500000       0.00500000       0.00500000       0.00500000       0.00500000       0.00500000       0.00500000       0.00500000       0.00500000       0.00500000       0.00500000       0.00500000       0.00500000       0.00500000       0.00500000       0.00500000       0.00500000       0.00500000       0.00500000       0.00000000
         0.00500000       0.00500000       0.00500000       0.00500000       0.00500000       0.00500000       0.00500000       0.00500000       0.00500000       0.00500000       0.00500000       0.00500000       0.00500000       0.00500000       0.00500000       0.00500000       0.00500000       0.00500000       0.00500000       0.00000000
         0.00500000       0.00500000       0.00500000       0.00500000       0.00500000       0.00500000       0.00500000       0.00500000       0.00500000       0.00500000       0.00500000       0.00500000       0.00500000       0.00500000       0.00500000       0.00500000       0.00500000       0.00500000       0.00500000       0.00000000
         0.00500000       0.00500000       0.00500000       0.00500000       0.00500000       0.00500000       0.00500000       0.00500000       0.00500000       0.00500000       0.00500000       0.00500000       0.00500000       0.00500000       0.00500000       0.00500000       0.00500000       0.00500000       0.00500000       0.00000000
         0.00500000       0.00500000       0.00500000       0.00500000       0.00500000       0.00500000       0.00500000       0.00500000       0.00500000       0.00500000       0.00500000       0.00500000       0.00500000       0.00500000       0.00500000       0.00500000       0.00500000       0.00500000       0.00500000       0.00000000
         0.00500000       0.00500000       0.00500000       0.00500000       0.00500000       0.00500000       0.00500000       0.00500000       0.00500000       0.00500000       0.00500000       0.00500000       0.00500000       0.00500000       0.00500000       0.00500000       0.00500000       0.00500000       0.00500000       0.00000000
         0.00500000       0.00500000       0.00500000       0.00500000       0.00500000       0.00500000       0.00500000       0.00500000       0.00500000       0.00500000       0.00500000       0.00500000       0.00500000       0.00500000       0.00500000       0.00500000       0.00500000       0.00500000       0.00500000       0.00000000
         0.00500000       0.00500000       0.00500000       0.00500000       0.00500000       0.00500000       0.00500000       0.00500000       0.00500000       0.00500000       0.00500000       0.00500000       0.00500000       0.00500000       0.00500000       0.00500000       0.00500000       0.00500000       0.00500000       0.00000000
         0.00500000       0.00500000       0.00500000       0.00500000       0.00500000       0.00500000       0.00500000       0.00500000       0.00500000       0.00500000       0.00500000       0.00500000       0.00500000       0.00500000       0.00500000       0.00500000       0.00500000       0.00500000       0.00500000       0.00000000
         0.00500000       0.00500000       0.00500000       0.00500000       0.00500000       0.00500000       0.00500000       0.00500000       0.00500000       0.00500000       0.00500000       0.00500000       0.00500000       0.00500000       0.00500000       0.00500000       0.00500000       0.00500000       0.00500000       0.00000000
         0.00500000       0.00500000       0.00500000       0.00500000       0.00500000       0.00500000       0.00500000       0.00500000       0.00500000       0.00500000       0.00500000       0.00500000       0.00500000       0.00500000       0.00500000       0.00500000       0.00500000       0.00500000       0.00500000       0.00000000
         0.00500000       0.00500000       0.00500000       0.00500000       0.00500000       0.00500000       0.00500000       0.00500000       0.00500000       0.00500000       0.00500000       0.00500000       0.00500000       0.00500000       0.00500000       0.00500000       0.00500000       0.00500000       0.00500000       0.00000000
         0.00500000       0.00500000       0.00500000       0.00500000       0.00500000       0.00500000       0.00500000       0.00500000       0.00500000       0.00500000       0.00500000       0.00500000       0.00500000       0.00500000       0.00500000       0.00500000       0.00500000       0.00500000       0.00500000       0.00000000
         0.00500000       0.00500000       0.00500000       0.00500000       0.00500000       0.00500000       0.00500000       0.00500000       0.00500000       0.00500000       0.00500000       0.00500000       0.00500000       0.00500000       0.00500000       0.00500000       0.00500000       0.00500000       0.00500000       0.00000000
         0.00500000       0.00500000       0.00500000       0.00500000       0.00500000       0.00500000       0.00500000       0.00500000       0.00500000       0.00500000       0.00500000       0.00500000       0.00500000       0.00500000       0.00500000       0.00500000       0.00500000       0.00500000       0.00500000       0.00000000
END period  1

