# File generated by Flopy version 3.11.0.dev0 on 06/02/2026 at 14:26:04.
BEGIN options
END options

BEGIN dimensions
  MAXBOUND  21
END dimensions

BEGIN period  1
  1 1 20 320 1.00000000E+05 317
  1 2 20 320 1.00000000E+05 317
  1 3 20 320 1.00000000E+05 317
  1 4 20 320 1.00000000E+05 317
  1 5 20 320 1.00000000E+05 317
  1 6 20 320 1.00000000E+05 317
  1 7 20 320 1.00000000E+05 317
  1 8 20 320 1.00000000E+05 317
  1 9 20 320 1.00000000E+05 317
  1 10 20 320 1.00000000E+05 317
  1 11 20 320 1.00000000E+05 317
  1 12 20 320 1.00000000E+05 317
  1 13 20 320 1.00000000E+05 317
  1 14 20 320 1.00000000E+05 317
  1 15 20 320 1.00000000E+05 317
  1 16 20 320 1.00000000E+05 317
  1 17 20 320 1.00000000E+05 317
  1 18 20 320 1.00000000E+05 317
  1 19 20 320 1.00000000E+05 317
  1 20 20 320 1.00000000E+05 317
  1 21 20 320 1.00000000E+05 317
END period  1

