# File generated by Flopy version 3.11.0.dev0 on 06/02/2026 at 14:26:04.
BEGIN options
  SAVE_FLOWS
END options

BEGIN packages
  DIS6  ps2.dis  dis
  NPF6  ps2.npf  npf
  IC6  ps2.ic  ic
  RIV6  ps2.riv  river
  RCH6  ps2.rcha  recharge
  OC6  ps2.oc  oc
  WEL6  ps2.wel  pump
END packages

