# File generated by Flopy version 3.11.0.dev0 on 06/02/2026 at 14:13:42.
BEGIN options
END options

BEGIN dimensions
  NLAY  3
  NROW  21
  NCOL  20
END dimensions

BEGIN griddata
  delr
    INTERNAL  FACTOR  1.0
       500.00000000     500.00000000     500.00000000     500.00000000     500.00000000     500.00000000     500.00000000     500.00000000     500.00000000     500.00000000     500.00000000     500.00000000     500.00000000     500.00000000     500.00000000     500.00000000     500.00000000     500.00000000     500.00000000     500.00000000
  delc
    INTERNAL  FACTOR  1.0
       500.00000000     500.00000000     500.00000000     500.00000000     500.00000000     500.00000000     500.00000000     500.00000000     500.00000000     500.00000000     500.00000000     500.00000000     500.00000000     500.00000000     500.00000000     500.00000000     500.00000000     500.00000000     500.00000000     500.00000000
       500.00000000
  top
    CONSTANT     340.00000000
  botm  LAYERED
    CONSTANT     220.00000000
    CONSTANT     200.00000000
    CONSTANT       0.00000000
  idomain
    CONSTANT  1
END griddata

