# File generated by Flopy version 3.11.0.dev0 on 06/02/2026 at 14:13:42.
BEGIN options
  SAVE_FLOWS
END options

BEGIN packages
  DIS6  model.dis  dis
  NPF6  model.npf  npf
  RIV6  model.riv  riv_0
  OC6  model.oc  oc
END packages

