# File generated by Flopy version 3.11.0.dev0 on 06/02/2026 at 14:13:43.
BEGIN options
  BUDGETCSV  FILEOUT  ps2_budget.csv
  HEAD  FILEOUT  ps2.hds
END options

BEGIN period  1
  SAVE  BUDGET  ALL
  SAVE  HEAD  ALL
END period  1

