# File generated by Flopy version 3.11.0.dev0 on 06/02/2026 at 14:23:30.
BEGIN options
  BUDGET  FILEOUT  ps2.cbc
  BUDGETCSV  FILEOUT  ps2_budget.csv
  HEAD  FILEOUT  ps2.hds
END options

BEGIN period  1
  SAVE  BUDGET  ALL
  SAVE  HEAD  ALL
  PRINT  BUDGET  ALL
END period  1

