# File generated by Flopy version 3.11.0.dev0 on 06/02/2026 at 14:23:30.
BEGIN options
END options

BEGIN dimensions
  NPER  1
END dimensions

BEGIN perioddata
       1.00000000  1       1.00000000
END perioddata

