# File generated by Flopy version 3.11.0.dev0 on 06/02/2026 at 14:23:30.
BEGIN options
  COMPLEXITY  simple
END options

